Version 4
SHEET 1 1096 680
WIRE 48 0 -128 0
WIRE 192 0 48 0
WIRE 288 0 192 0
WIRE 560 0 448 0
WIRE 688 0 560 0
WIRE 768 0 688 0
WIRE 928 0 848 0
WIRE -128 32 -128 0
WIRE 48 32 48 0
WIRE 192 32 192 0
WIRE 288 32 192 32
WIRE 560 32 560 0
WIRE 688 32 688 0
WIRE 928 32 928 0
WIRE 48 48 48 32
WIRE 192 48 192 32
WIRE 560 48 560 32
WIRE 688 48 688 32
WIRE 928 48 928 32
WIRE 192 64 192 48
WIRE -128 160 -128 112
WIRE 48 160 48 112
WIRE 48 160 -128 160
WIRE 192 160 192 128
WIRE 192 160 48 160
WIRE 368 160 368 96
WIRE 368 160 192 160
WIRE 560 160 560 112
WIRE 560 160 368 160
WIRE 688 160 688 112
WIRE 688 160 560 160
WIRE 928 160 928 112
WIRE 928 160 688 160
WIRE 368 208 368 160
FLAG 192 48 VC1
FLAG 48 32 VC2
FLAG 368 208 0
FLAG 560 32 VC4
FLAG 688 32 VC5
FLAG 928 32 VC3
SYMBOL cap 176 64 R0
SYMATTR InstName C1
SYMATTR Value .1µ
SYMBOL cap 32 48 R0
SYMATTR InstName C2
SYMATTR Value 10µ
SYMATTR SpiceLine V=50 Cpar=0.000001
SYMBOL voltage -128 16 R0
SYMATTR InstName V1
SYMATTR Value 5
SYMBOL AutoGenerated\\TLV75533P_TRANS 352 32 R0
SYMATTR InstName U1
SYMBOL cap 544 48 R0
SYMATTR InstName C4
SYMATTR Value 10µ
SYMBOL cap 672 48 R0
SYMATTR InstName C5
SYMATTR Value .1µ
SYMBOL res 864 -16 R90
WINDOW 0 0 56 VBottom 2
WINDOW 3 32 56 VTop 2
SYMATTR InstName R1
SYMATTR Value 10k
SYMBOL cap 912 48 R0
SYMATTR InstName C3
SYMATTR Value .1µ
TEXT -168 192 Left 2 !.tran .0001 0.01
TEXT 152 8 VRight 2 !.ic V(VC1)=0
TEXT 8 8 VRight 2 !.ic V(VC2)=0
TEXT 520 8 VRight 2 !.ic V(VC4)=0
TEXT 648 8 VRight 2 !.ic V(VC5)=0
TEXT 888 8 VRight 2 !.ic V(VC3)=0
